@<TRIPOS>MOLECULE
obj01
 57 60 0 0 0
SMALL
GASTEIGER

@<TRIPOS>ATOM
      1 C          52.0380   75.5420   26.6960 C.3     1  UNL1       -0.0611
      2 C          52.0610   76.3910   27.9710 C.3     1  UNL1       -0.0255
      3 C          53.4730   76.7230   28.3980 C.ar    1  UNL1        0.0164
      4 C          54.3700   75.9820   29.1690 C.ar    1  UNL1        0.0551
      5 N          55.5500   76.5390   29.3420 N.ar    1  UNL1       -0.1714
      6 N          55.4850   77.6990   28.6400 N.ar    1  UNL1       -0.2003
      7 C          54.2200   77.8800   28.0740 C.ar    1  UNL1        0.1627
      8 N          53.9310   78.9750   27.3710 N.ar    1  UNL1       -0.2127
      9 C          54.9050   79.9080   27.1640 C.ar    1  UNL1        0.1271
     10 C          56.1970   79.7440   27.6790 C.ar    1  UNL1        0.0182
     11 C          56.4930   78.6140   28.4490 C.ar    1  UNL1        0.1260
     12 N          57.7550   78.3810   29.0050 N.pl3   1  UNL1       -0.3246
     13 C          58.8620   79.3190   28.9070 C.3     1  UNL1        0.0413
     14 C          58.7850   80.4160   29.9530 C.2     1  UNL1        0.0330
     15 C          58.6410   80.1100   31.3120 C.2     1  UNL1       -0.0489
     16 C          58.5830   81.1350   32.2590 C.2     1  UNL1       -0.0088
     17 C          58.6830   82.4590   31.8290 C.3     1  UNL1        0.2411
     18 N          58.8450   82.7220   30.5150 N.3     1  UNL1       -0.2445
     19 C          58.9040   81.7540   29.5770 C.2     1  UNL1        0.1739
     20 O          58.9440   83.9200   30.1450 O.co2   1  UNL1       -0.5550
     21 N          54.5300   81.0450   26.4410 N.pl3   1  UNL1       -0.3119
     22 C          55.4780   81.9790   25.8020 C.3     1  UNL1        0.0138
     23 C          55.1700   83.4460   26.1630 C.3     1  UNL1       -0.0371
     24 C          53.7270   83.8200   25.7920 C.3     1  UNL1       -0.0500
     25 C          52.7480   82.7790   26.3540 C.3     1  UNL1       -0.0342
     26 C          53.1430   81.3230   25.9900 C.3     1  UNL1        0.0269
     27 C          52.8060   80.9550   24.5200 C.3     1  UNL1       -0.0110
     28 C          53.2070   79.5350   24.0740 C.3     1  UNL1        0.0459
     29 O          52.5700   78.5450   24.8480 O.3     1  UNL1       -0.3949
     30 H          57.9030   77.5340   29.5410 H       1  UNL1        0.1478
     31 H          52.9800   78.5470   25.7210 H       1  UNL1        0.2094
     32 H          54.1490   75.0240   29.6050 H       1  UNL1        0.0851
     33 H          56.9530   80.4960   27.5310 H       1  UNL1        0.0686
     34 H          58.5720   79.0820   31.6270 H       1  UNL1        0.0622
     35 H          58.4590   80.9090   33.3080 H       1  UNL1        0.0640
     36 H          58.6410   83.3120   32.4920 H       1  UNL1        0.1191
     37 H          59.0410   82.0830   28.5590 H       1  UNL1        0.1380
     38 H          52.4670   80.7150   26.5870 H       1  UNL1        0.0501
     39 H          51.0220   75.3420   26.3590 H       1  UNL1        0.0233
     40 H          52.5710   76.0260   25.8790 H       1  UNL1        0.0233
     41 H          52.4990   74.5790   26.8840 H       1  UNL1        0.0233
     42 H          51.5260   75.8530   28.7480 H       1  UNL1        0.0312
     43 H          51.4990   77.3100   27.8190 H       1  UNL1        0.0312
     44 H          58.9540   79.7270   27.9000 H       1  UNL1        0.0513
     45 H          59.7560   78.7440   29.0980 H       1  UNL1        0.0513
     46 H          55.4140   81.8450   24.7250 H       1  UNL1        0.0464
     47 H          56.5160   81.7670   26.0420 H       1  UNL1        0.0464
     48 H          55.8690   84.1100   25.6540 H       1  UNL1        0.0280
     49 H          55.3290   83.5990   27.2320 H       1  UNL1        0.0280
     50 H          53.6230   83.8640   24.7080 H       1  UNL1        0.0266
     51 H          53.4820   84.8180   26.1550 H       1  UNL1        0.0266
     52 H          51.7360   82.9970   26.0130 H       1  UNL1        0.0283
     53 H          52.7210   82.8780   27.4400 H       1  UNL1        0.0283
     54 H          53.2770   81.6680   23.8460 H       1  UNL1        0.0305
     55 H          51.7350   81.0840   24.3620 H       1  UNL1        0.0305
     56 H          54.2850   79.3930   24.1430 H       1  UNL1        0.0558
     57 H          52.9280   79.3830   23.0320 H       1  UNL1        0.0558
@<TRIPOS>UNITY_ATOM_ATTR
18 1
charge 1
20 1
charge -1
@<TRIPOS>BOND
     1     1     2    1
     2     1    39    1
     3     1    40    1
     4     1    41    1
     5     2     3    1
     6     2    42    1
     7     2    43    1
     8     3     4   ar
     9     3     7   ar
    10     4     5   ar
    11     4    32    1
    12     5     6   ar
    13     6     7   ar
    14     6    11   ar
    15     7     8   ar
    16     8     9   ar
    17     9    21    1
    18     9    10   ar
    19    10    11   ar
    20    10    33    1
    21    11    12    1
    22    12    13    1
    23    12    30    1
    24    13    14    1
    25    13    44    1
    26    13    45    1
    27    14    19    2
    28    14    15    1
    29    15    16    2
    30    15    34    1
    31    16    35    1
    32    16    17    1
    33    17    18    1
    34    17    36    1
    35    18    19    1
    36    18    20    1
    37    19    37    1
    38    21    22    1
    39    22    23    1
    40    22    46    1
    41    22    47    1
    42    23    48    1
    43    23    49    1
    44    23    24    1
    45    24    25    1
    46    24    50    1
    47    24    51    1
    48    25    52    1
    49    25    53    1
    50    21    26    1
    51    25    26    1
    52    26    27    1
    53    26    38    1
    54    27    54    1
    55    27    55    1
    56    27    28    1
    57    28    29    1
    58    28    56    1
    59    28    57    1
    60    29    31    1
